IJAU11/CargasMT_DU02_2022124950_IJAU11_--MBS-1--T--.dss


New "Load.MT_3921260_1_M1" bus1="121960836.1.2.3.4" phases=3 conn=Delta model=2 kv=13.800000000 kw = 18.678846 pf=0.92 status=variable vmaxpu=1.5 vminpu=0.93 daily="MT2_1_DU"  
New "Load.MT_3921260_1_M2" bus1="121960836.1.2.3.4" phases=3 conn=Delta model=3 kv=13.800000000 kw = 18.678846 pf=0.92 status=variable vmaxpu=1.5 vminpu=0.93 daily="MT2_1_DU" 
New "Load.MT_3066035_M1" bus1="150344151.1.2.3.4" phases=3 conn=Delta model=2 kv=13.800000000 kw = 9.4859235 pf=0.92 status=variable vmaxpu=1.5 vminpu=0.93 daily="MT2_1_DU"  
New "Load.MT_3066035_M2" bus1="150344151.1.2.3.4" phases=3 conn=Delta model=3 kv=13.800000000 kw = 9.4859235 pf=0.92 status=variable vmaxpu=1.5 vminpu=0.93 daily="MT2_1_DU" 
New "Load.MT_9041318_2_M1" bus1="159512874.1.2.3.4" phases=3 conn=Delta model=2 kv=13.800000000 kw = 50.6364755 pf=0.92 status=variable vmaxpu=1.5 vminpu=0.93 daily="MT2_1_DU"  
New "Load.MT_9041318_2_M2" bus1="159512874.1.2.3.4" phases=3 conn=Delta model=3 kv=13.800000000 kw = 50.6364755 pf=0.92 status=variable vmaxpu=1.5 vminpu=0.93 daily="MT2_1_DU" 
New "Load.MT_4097296_M1" bus1="121962978.1.2.3.4" phases=3 conn=Delta model=2 kv=13.800000000 kw = 9.094111 pf=0.92 status=variable vmaxpu=1.5 vminpu=0.93 daily="MT1_1_DU"  
New "Load.MT_4097296_M2" bus1="121962978.1.2.3.4" phases=3 conn=Delta model=3 kv=13.800000000 kw = 9.094111 pf=0.92 status=variable vmaxpu=1.5 vminpu=0.93 daily="MT1_1_DU" 

New "Load.MT_2531459_M1" bus1="150344147.1.2.3.4" phases=3 conn=Delta model=2 kv=13.800000000 kw = 12.9653165 pf=0.92 status=variable vmaxpu=1.5 vminpu=0.93 daily="MT2_1_DU"  
New "Load.MT_2531459_M2" bus1="150344147.1.2.3.4" phases=3 conn=Delta model=3 kv=13.800000000 kw = 12.9653165 pf=0.92 status=variable vmaxpu=1.5 vminpu=0.93 daily="MT2_1_DU" 
New "Load.MT_8368408_1_M1" bus1="137307013.1.2.3.4" phases=3 conn=Delta model=2 kv=13.800000000 kw = 73.4139175 pf=0.92 status=variable vmaxpu=1.5 vminpu=0.93 daily="MT3_1_DU"  
New "Load.MT_8368408_1_M2" bus1="137307013.1.2.3.4" phases=3 conn=Delta model=3 kv=13.800000000 kw = 73.4139175 pf=0.92 status=variable vmaxpu=1.5 vminpu=0.93 daily="MT3_1_DU" 
New "Load.MT_675633_M1" bus1="121960654.1.2.3.4" phases=3 conn=Delta model=2 kv=13.800000000 kw = 1.9105275 pf=0.92 status=variable vmaxpu=1.5 vminpu=0.93 daily="MT1_1_DU"  
New "Load.MT_675633_M2" bus1="121960654.1.2.3.4" phases=3 conn=Delta model=3 kv=13.800000000 kw = 1.9105275 pf=0.92 status=variable vmaxpu=1.5 vminpu=0.93 daily="MT1_1_DU" 
New "Load.MT_535444_M1" bus1="150344153.1.2.3.4" phases=3 conn=Delta model=2 kv=13.800000000 kw = 9.2295475 pf=0.92 status=variable vmaxpu=1.5 vminpu=0.93 daily="MT2_1_DU"  
New "Load.MT_535444_M2" bus1="150344153.1.2.3.4" phases=3 conn=Delta model=3 kv=13.800000000 kw = 9.2295475 pf=0.92 status=variable vmaxpu=1.5 vminpu=0.93 daily="MT2_1_DU" 

New "Load.MT_8762559_M1" bus1="150032966.1.2.3.4" phases=3 conn=Delta model=2 kv=13.800000000 kw = 8.941269 pf=0.92 status=variable vmaxpu=1.5 vminpu=0.93 daily="MT1_1_DU"  
New "Load.MT_8762559_M2" bus1="150032966.1.2.3.4" phases=3 conn=Delta model=3 kv=13.800000000 kw = 8.941269 pf=0.92 status=variable vmaxpu=1.5 vminpu=0.93 daily="MT1_1_DU" 


New "Load.MT_529970_M1" bus1="121960626.1.2.3.4" phases=3 conn=Delta model=2 kv=13.800000000 kw = 178.996505 pf=0.92 status=variable vmaxpu=1.5 vminpu=0.93 daily="MT4_1_DU"  
New "Load.MT_529970_M2" bus1="121960626.1.2.3.4" phases=3 conn=Delta model=3 kv=13.800000000 kw = 178.996505 pf=0.92 status=variable vmaxpu=1.5 vminpu=0.93 daily="MT4_1_DU" 
New "Load.MT_4209331_M1" bus1="183449179.1.2.3.4" phases=3 conn=Delta model=2 kv=13.800000000 kw = 127.8193695 pf=0.92 status=variable vmaxpu=1.5 vminpu=0.93 daily="MT1_1_DU"  
New "Load.MT_4209331_M2" bus1="183449179.1.2.3.4" phases=3 conn=Delta model=3 kv=13.800000000 kw = 127.8193695 pf=0.92 status=variable vmaxpu=1.5 vminpu=0.93 daily="MT1_1_DU" 

New "Load.MT_529977_M1" bus1="174042194.1.2.3.4" phases=3 conn=Delta model=2 kv=13.800000000 kw = 8.01176 pf=0.92 status=variable vmaxpu=1.5 vminpu=0.93 daily="MT2_1_DU"  
New "Load.MT_529977_M2" bus1="174042194.1.2.3.4" phases=3 conn=Delta model=3 kv=13.800000000 kw = 8.01176 pf=0.92 status=variable vmaxpu=1.5 vminpu=0.93 daily="MT2_1_DU" 
